%chk=8dTS-Cu.chk
%nprocshared=16
%mem=6GB
# opt=(calcfc,ts,noeigen) freq=noraman upbepbe/gen
empiricaldispersion=gd3bj pseudo=read scf=maxcycles=1000

8dTS-Cu

0 4
 Cu                -0.45921100   -2.36070500    0.00440100
 Cu                 0.51823300   -1.24155800   -2.12200900
 Cu                -1.84548200   -0.60840700   -1.24573700
 Cu                -0.11398900    1.21428800   -2.12638700
 Cu                 1.97149900   -1.69823500   -0.00042100
 Cu                -1.83540900   -0.60822700    1.26089500
 Cu                 0.53442900   -1.23545900    2.12148600
 Cu                 2.28060600    0.50882200   -1.31057700
 Cu                 2.29100300    0.50928400    1.29242300
 Cu                 0.23464300    0.01489300   -0.00133000
 Cu                -1.50084700    1.81685800    0.00345700
 Cu                -0.09577400    1.21955800    2.12482200
 Cu                 0.94187100    2.33782600   -0.00654600
 O                 -3.42708000    1.25468800    0.03139300
 C                 -3.53458900   -0.03137500    0.00152500
 O                 -4.51268200   -0.75606100   -0.01251500

Cu 0
LANL2DZ
****
O C 0
def2tzvp
****

Cu 0
LANL2DZ



