%chk=10d-AuCu.chk
%nprocshared=16
%mem=6GB
# opt freq=noraman upbepbe/gen empiricaldispersion=gd3bj pseudo=read
scf=maxcycles=1000

10d-AuCu

0 2
 Au                -0.54155900   -1.02531600    2.17921900
 Au                 1.47355700   -2.23953400   -0.44396400
 Au                -3.12074500   -0.00543300   -1.02516400
 Cu                 2.46910700    2.05266700    0.77155600
 Cu                 0.83566200    0.24901100    0.29244200
 Cu                 0.29050100    1.50525100    2.33891700
 Cu                 3.08066400    0.04215000   -0.69168500
 Cu                 0.07690500    2.77140200    0.25249400
 Cu                 1.59195500    1.89843300   -1.56610400
 Cu                 1.04908900   -0.40038700   -2.17761600
 Cu                -0.97251800   -1.31978300   -0.45623000
 Cu                -1.62907700    0.95129300    0.85206300
 Cu                -0.82984100    1.15866600   -1.55022200

Au Cu 0
LANL2DZ
****

Au Cu 0
LANL2DZ



