%chk=7d-Cu.chk
%nprocshared=8
%mem=6GB
# opt freq=noraman upbepbe/gen empiricaldispersion=gd3bj pseudo=read
scf=maxcycles=1000

7d-Cu

0 4
 Cu                -0.95964200    0.41925700   -2.16245600
 Cu                -1.21603700    1.99406000   -0.10394800
 Cu                -2.54652100   -0.65435500    0.03497000
 Cu                -0.95597800    0.64587400    2.10847000
 Cu                 1.06483900    1.85573500   -1.46530900
 Cu                -0.59205400   -1.95609900   -1.31300300
 Cu                 1.36446400   -0.61031600   -2.11009000
 Cu                 1.06822900    1.99928600    1.26088400
 Cu                 2.63451200    0.48453300   -0.02815000
 Cu                 0.19707900    0.03850700   -0.00162500
 Cu                -0.59117600   -1.80617400    1.51194500
 Cu                 1.73321300   -1.90055300    0.09927900
 Cu                 1.36766300   -0.38545300    2.16135800
 O                 -1.78684200   -2.37739200    0.12622300
 C                 -3.83116600    0.65318900   -0.03247100
 O                 -4.65091500    1.43690200   -0.07404500

Cu 0
LANL2DZ
****
O C 0
def2tzvp
****

Cu 0
LANL2DZ



