%chk=9d-Cu.chk
%nprocshared=16
%mem=6GB
# opt freq=noraman upbepbe/gen empiricaldispersion=gd3bj pseudo=read
scf=maxcycles=1000

9d-Cu

0 4
 Cu                 0.99768700   -0.23343000   -2.03703800
 Cu                -0.17892000   -2.30577300   -0.84718800
 Cu                 1.77763600   -1.15467700    0.50762300
 Cu                -0.35039200   -1.95392400    1.62133200
 Cu                -1.59857500   -0.66354200   -2.07840300
 Cu                 1.79855700    1.42930500   -0.14456200
 Cu                -0.16110600    2.06049800   -1.56419000
 Cu                -2.34610700   -1.34472800    0.20238600
 Cu                -2.31495600    1.21042000   -0.53823800
 Cu                -0.27418400    0.03416900    0.02647200
 Cu                 1.06640800    0.68292700    2.10650300
 Cu                -0.37007100    2.36865600    0.90893000
 Cu                -1.54972500    0.32801900    2.08275900
 C                  4.61482100   -0.59578400   -0.32453100
 O                  5.21211000    0.36372800   -0.55837100
 O                  4.02787300   -1.57684300   -0.09138300

Cu 0
LANL2DZ
****
O C 0
def2tzvp
****

Cu 0
LANL2DZ



