%chk=2d-Cu.chk
%nprocshared=16
%mem=6GB
# opt freq=noraman upbepbe/gen empiricaldispersion=gd3bj pseudo=read
scf=maxcycles=1000

2d-Cu

0 4
 Cu                -0.30263600   -1.18296100   -2.07649600
 Cu                 0.55057100    1.26142700   -2.08536700
 Cu                -1.82662200    0.88326400   -1.35489900
 Cu                -0.34003900    2.45480200    0.02460300
 Cu                 2.11044800   -0.80317100   -1.28714800
 Cu                -1.80252700   -1.60824700   -0.01252400
 Cu                 0.57434800   -2.43419300   -0.02500500
 Cu                 2.12125200    1.54591100    0.01350200
 Cu                 2.11526600   -0.82737400    1.26586700
 Cu                 0.17113100    0.04041300    0.00113200
 Cu                -1.82506500    0.85459300    1.37291500
 Cu                -0.29611500   -1.22681300    2.05481100
 Cu                 0.55253000    1.21886700    2.10975400
 O                 -3.26799400   -0.32536300    0.73713400
 O                 -3.26622100   -0.31451200   -0.74128600

Cu 0
LANL2DZ
****
O 0
def2tzvp
****

Cu 0
LANL2DZ



