%chk=8dTS-AuCu.chk
%nprocshared=8
%mem=6GB
# opt=(calcfc,ts,noeigen) freq=noraman upbepbe/gen
empiricaldispersion=gd3bj pseudo=read scf=maxcycles=1000

8dTS-AuCu

0 2
 Au                 0.30355200   -0.33934300    2.35069500
 Au                -0.48646500    2.63198000    0.78860000
 Au                 3.30335300   -0.61584300   -0.64776400
 Cu                -3.04309600   -0.76699600   -0.77929700
 Cu                -0.80058500    0.12415600    0.00120500
 Cu                -1.29594500   -2.02600400    1.24743400
 Cu                -2.58794700    1.66513300   -0.70739600
 Cu                -0.87576400   -2.10109600   -1.35028600
 Cu                -1.41540400    0.21637000   -2.43544900
 Cu                 0.10198700    1.93425000   -1.62667200
 Cu                 1.54925200    0.99193300    0.28804000
 Cu                 1.08925100   -1.63729600    0.21931600
 Cu                 0.98367500   -0.39154800   -1.91277900
 O                 -2.63933400   -2.63117500   -0.78590600
 C                 -2.63001700   -3.33167000    0.95485200
 O                 -3.38465700   -4.21067300    1.04348200

Au Cu 0
LANL2DZ
****
O C 0
def2tzvp
****

Au Cu 0
LANL2DZ



