%chk=1d-Cu.chk
%nprocshared=8
%mem=6GB
# opt freq=noraman upbepbe/gen empiricaldispersion=gd3bj pseudo=read
scf=maxcycles=1000

1d-Cu

0 4
 Cu                -2.12348900    0.00222600   -1.30779200
 Cu                -0.00378200   -1.42187700   -1.97318800
 Cu                -0.00133800    1.42499300   -1.97112000
 Cu                 2.11593400   -0.00098600   -1.31348400
 Cu                -1.58609500   -2.04249700    0.00021600
 Cu                -1.58310400    2.04491700    0.00196200
 Cu                -2.11945300    0.00063200    1.31216000
 Cu                 1.58740700   -2.04598200   -0.00240400
 Cu                 0.00126900   -1.42136400    1.97264300
 Cu                -0.00145300    0.00039900   -0.00176600
 Cu                 1.59199900    2.04332200    0.00057800
 Cu                 0.00315300    1.41877700    1.97459700
 Cu                 2.11895200   -0.00256100    1.30759800

Cu 0
LANL2DZ
****

Cu 0
LANL2DZ



