%chk=10d-Cu.chk
%nprocshared=16
%mem=6GB
# opt freq=noraman upbepbe/gen empiricaldispersion=gd3bj pseudo=read
scf=maxcycles=1000

10d-Cu

0 4
 Cu                 0.00357100    1.44758100   -1.95574000
 Cu                -2.11147300    0.01691400   -1.31907500
 Cu                 0.01283400   -1.38228500   -1.99737800
 Cu                -1.57551100   -2.04888500   -0.03505500
 Cu                -1.59643900    2.04028800    0.02558600
 Cu                 2.12192000    0.02562100   -1.30508200
 Cu                 1.58788300    2.04570900    0.03515400
 Cu                -2.12345100   -0.03048600    1.30247200
 Cu                -0.01161300    1.39180500    1.99705700
 Cu                 0.00075900    0.00564600    0.00230600
 Cu                 1.58340000   -2.04286800   -0.02432700
 Cu                 2.11417600   -0.02267100    1.31767500
 Cu                -0.00605600   -1.44637100    1.95640600

