%chk=7d-AuCu.chk
%nprocshared=8
%mem=6GB
# opt freq=noraman upbepbe/gen empiricaldispersion=gd3bj pseudo=read
scf=maxcycles=1000

7d-AuCu

0 2
 Au                -0.23149500    1.36062000    1.83313000
 Au                 1.14954500   -1.77095600    1.77844700
 Au                -3.36947400   -0.36143400   -0.41817000
 Cu                 2.77455700    0.73564100   -1.53524600
 Cu                 0.83769600    0.04339800   -0.12156700
 Cu                 1.17957000    2.75932300   -0.32526600
 Cu                 2.85005200   -1.41285300   -0.33077300
 Cu                 0.29325000    1.24229000   -2.35620500
 Cu                 1.29069900   -1.15308900   -2.30129200
 Cu                 0.24859100   -2.47374500   -0.53919000
 Cu                -1.24680200   -0.95145600    0.89318400
 Cu                -1.38977500    1.32241500   -0.48330000
 Cu                -1.14219600   -0.78882500   -1.76296300
 O                  1.85114200    2.33240600   -2.03877100
 C                  1.02504000    3.97202200    1.03213800
 O                  0.94118500    4.76356300    1.85675600

Au Cu 0
LANL2DZ
****
O 0
def2tzvp
****

Au Cu 0
LANL2DZ



