%chk=5d-Cu.chk
%nprocshared=16
%mem=6GB
# opt freq=noraman upbepbe/gen empiricaldispersion=gd3bj pseudo=read
scf=maxcycles=1000

5d-Cu

0 4
 Cu                -1.49747300   -1.61910600    0.00309500
 Cu                -0.08495200   -1.22028700   -2.14087800
 Cu                -1.65233700    0.60478000   -1.44415600
 Cu                 0.72469000    1.21746800   -2.13820200
 Cu                 0.92245800   -2.38288200   -0.01208000
 Cu                -1.63894200    0.59629000    1.46532300
 Cu                -0.06459400   -1.23366100    2.13559900
 Cu                 2.32023500   -0.69009000   -1.36492700
 Cu                 2.33233100   -0.70133800    1.34285800
 Cu                 0.38655400   -0.01223500   -0.00020600
 Cu                -0.42640900    2.38060400    0.01060800
 Cu                 0.74483800    1.20564600    2.14059700
 Cu                 2.01833300    1.79246500   -0.00345100
 O                 -2.26284500    1.68780100    0.01683600
 O                 -5.28173000    0.37430800   -0.01051500
 C                 -4.55162400   -0.51524400    0.00174100
 O                 -3.84885900   -1.44967300    0.01347300

Cu 0
LANL2DZ
****
O C 0
def2tzvp
****

Cu 0
LANL2DZ



