%chk=1d-AuCu.chk
%nprocshared=16
%mem=6GB
# opt freq=noraman pbepbe/gen empiricaldispersion=gd3bj pseudo=read
scf=(intrep,novaracc,maxcycles=1000,yqc)

1d-AuCu

0 2
 Au                -1.14097500   -1.40472900    1.85357700
 Au                 2.25636000   -1.33174600    0.00000000
 Au                -1.14097500   -1.40472900   -1.85357700
 Cu                 0.78618900    2.46693600    1.29363700
 Cu                 1.16664700    0.06646600    2.09793200
 Cu                -1.14097500    1.13889600    2.08437600
 Cu                 2.44161100    1.21643000    0.00000000
 Cu                -1.54040100    2.42953400    0.00000000
 Cu                 0.78618900    2.46693600   -1.29363700
 Cu                 1.16664700    0.06646600   -2.09793200
 Cu                -0.00682300    0.25753500    0.00000000
 Cu                -2.44840300    0.03312000    0.00000000
 Cu                -1.14097500    1.13889600   -2.08437600

Au Cu 0
LANL2DZ
****

Au Cu 0
LANL2DZ



