%chk=6d-AuCu.chk
%nprocshared=8
%mem=6GB
# opt freq=noraman upbepbe/gen empiricaldispersion=gd3bj pseudo=read
scf=maxcycles=1000

6d-AuCu

0 2
 Au                -0.47664400    0.11939500    2.43095200
 Au                 1.87717700   -2.33413200    0.13697300
 Au                -3.11855800   -1.00048800   -0.62766700
 Cu                 2.55705100    2.24920600   -0.01038100
 Cu                 1.21969000    0.13018200    0.50160700
 Cu                 0.16298000    2.29011500    1.14526600
 Cu                 3.22669400    0.01593600   -0.80687300
 Cu                -1.01200100    2.82437200   -1.05712800
 Cu                 0.98677800    1.45862100   -1.66919100
 Cu                 0.97078800   -0.94255300   -1.86149300
 Cu                -0.66851700   -1.41607400    0.06903700
 Cu                -1.83131300    0.96697800    0.38387400
 Cu                -1.16402600    0.28886400   -1.87245700
 O                  0.84104100    3.23737200   -0.39074400

Au Cu 0
LANL2DZ
****
O 0
def2tzvp
****

Au Cu 0
LANL2DZ



