%chk=6d-Cu.chk
%nprocshared=8
%mem=6GB
# opt freq=noraman upbepbe/gen empiricaldispersion=gd3bj pseudo=read
scf=maxcycles=1000

6d-Cu

0 4
 Cu                 0.18416200    0.00018400   -2.40439900
 Cu                 0.71617300    2.13880200   -1.08264900
 Cu                -1.69163200    1.38804200   -1.13305200
 Cu                -0.61736800    2.12992100    1.11616500
 Cu                 2.30109200    0.00305700   -1.01010600
 Cu                -1.68754600   -1.39283700   -1.13298000
 Cu                 0.72242500   -2.13679700   -1.08241300
 Cu                 1.87588900    1.39798700    1.07984200
 Cu                 1.87992600   -1.39271100    1.07987500
 Cu                 0.11477600    0.00020300    0.07759700
 Cu                -2.20988400   -0.00306600    1.07065200
 Cu                -0.61123000   -2.13151400    1.11631600
 Cu                -0.16458500   -0.00010000    2.50229200
 O                 -2.94421400   -0.00424300   -0.71462900

Cu 0
LANL2DZ
****
O 0
def2tzvp
****

Cu 0
LANL2DZ



