%chk=4dTS-Cu.chk
%nprocshared=8
%mem=6GB
# opt=(calcfc,noeigen,ts) freq=noraman upbepbe/gen empiricaldispersion=gd3bj pseudo=read scf=maxcycles=1000

4dTS-Cu

0 4
 Cu                 1.57161600   -0.17928700    1.55703700
 Cu                 0.03542200    2.17251400    1.23567300
 Cu                 1.83425400    1.49608800   -0.32065500
 Cu                -0.31646800    2.12525600   -1.33151600
 Cu                -0.97314600    0.14098500    2.33219300
 Cu                 1.45467600   -1.93595600   -0.24485700
 Cu                -0.36965000   -2.10701700    1.37752300
 Cu                -2.24279900    1.52672000    0.28071800
 Cu                -2.50708500   -1.00085700    0.43802000
 Cu                -0.28825400    0.01252800    0.02147500
 Cu                 0.83277800   -0.08992700   -2.12592900
 Cu                -0.84632900   -2.11787000   -1.15942200
 Cu                -1.78426000    0.12702300   -1.88112700
 O                  2.60647100   -0.96382600   -1.53320100
 O                  3.62602400   -0.15960800   -0.79348100
 C                  3.34693100    0.06760100    0.59586500
 O                  4.30456300    0.45575600    1.23043100

Cu 0
LANL2DZ
****
O C 0
def2tzvp
****

Cu 0
LANL2DZ



